Circuit: * E:\EDL\Lab 2\EDL_LAB2_B_latest.asc

WARNING: Node X1:N002 is floating.

Direct Newton iteration failed to find .op point.  (Use ".option noopiter" to skip.)
Starting Gmin stepping
Gmin = 10
Gmin = 1.07374
vernier = 0.5
vernier = 0.25
Gmin = 0.31275
vernier = 0.125
vernier = 0.0625
vernier = 0.03125
vernier = 0.015625
Gmin = 0.305551
vernier = 0.0078125
vernier = 0.00390625
vernier = 0.00195313
vernier = 0.000976563
Gmin = 0.304065
vernier = 0.000488281
Gmin = 0
Gmin stepping failed

Starting source stepping with srcstepmethod=0
Source Step = 3.0303%
vernier = 0.25
Source Step = 0.0177557%
Starting source stepping with srcstepmethod=1
Source Step = 3.0303%
vernier = 0.25
Source stepping failed

Pseudo Transient failed in finding the operating point at 2.27078 ms.
Trouble finding operating point....skipping operating point for Transient analysis.
Changing Tseed to 4.88281e-008
Changing Tseed to 4.88281e-010
Changing Tseed to 4.88281e-007
to 9.76562e-007

Date: Tue Feb 20 10:56:09 2018
Total elapsed time: 2.413 seconds.

tnom = 27
temp = 27
method = modified trap
totiter = 68089
traniter = 51399
tranpoints = 15324
accept = 11957
rejected = 3668
matrix size = 30
fillins = 2
solver = Normal
Matrix Compiler1:      61 opcodes  0.4/[0.1]/0.1
Matrix Compiler2: 1.93 KB object code size  0.5/0.6/[0.4]

